Info: SIMULATION PARAMETERS:
Info: TIMESTEP               2
Info: NUMBER OF STEPS        0
Info: STEPS PER CYCLE        20
Info: PERIODIC CELL BASIS 1  88.7915 0 0
Info: PERIODIC CELL BASIS 2  0 88.7915 0
Info: PERIODIC CELL BASIS 3  0 0 134.073
Info: PERIODIC CELL CENTER   0 0 0
Info: WRAPPING WATERS AROUND PERIODIC BOUNDARIES ON OUTPUT.
Info: WRAPPING ALL CLUSTERS AROUND PERIODIC BOUNDARIES ON OUTPUT.
Info: FIRST LDB TIMESTEP     100
Info: LAST LDB TIMESTEP     -1
Info: HOM BACKGROUND SCALING 1
Info: PME BACKGROUND SCALING 1
Info: MIN ATOMS PER PATCH    40
Info: VELOCITY FILE          step7.0_production.vel
Info: CENTER OF MASS MOVING INITIALLY? NO
Info: DIELECTRIC             1
Info: EXCLUDE                SCALED ONE-FOUR
Info: 1-4 ELECTROSTATICS SCALED BY 1
Info: MODIFIED 1-4 VDW PARAMETERS WILL BE USED
Info: DCD FILENAME           gamd_test_104D.dcd
Info: DCD FREQUENCY          500
Info: DCD FIRST STEP         500
Info: DCD FILE WILL CONTAIN UNIT CELL DATA
Info: XST FILENAME           gamd_test_104D.xst
Info: XST FREQUENCY          5000
Info: NO VELOCITY DCD OUTPUT
Info: NO FORCE DCD OUTPUT
Info: OUTPUT FILENAME        gamd_test_104D
Info: BINARY OUTPUT FILES WILL BE USED
Info: RESTART FILENAME       gamd_test_104D.restart
Info: RESTART FREQUENCY      5000
Info: BINARY RESTART FILES WILL BE USED
Info: SWITCHING ACTIVE
Info: VDW FORCE SWITCHING ACTIVE
Info: SWITCHING ON           10
Info: SWITCHING OFF          12
Info: PAIRLIST DISTANCE      16
Info: PAIRLIST SHRINK RATE   0.01
Info: PAIRLIST GROW RATE     0.01
Info: PAIRLIST TRIGGER       0.3
Info: PAIRLISTS PER CYCLE    2
Info: PAIRLISTS ENABLED
Info: MARGIN                 1.11
Info: HYDROGEN GROUP CUTOFF  2.5
Info: PATCH DIMENSION        19.61
Info: ENERGY OUTPUT STEPS    5000
Info: CROSSTERM ENERGY INCLUDED IN DIHEDRAL
Info: TIMING OUTPUT STEPS    5000
Info: LANGEVIN DYNAMICS ACTIVE
Info: LANGEVIN TEMPERATURE   310.15
Info: LANGEVIN USING BBK INTEGRATOR
Info: LANGEVIN DAMPING COEFFICIENT IS 1 INVERSE PS
Info: LANGEVIN DYNAMICS NOT APPLIED TO HYDROGENS
Info: LANGEVIN PISTON PRESSURE CONTROL ACTIVE
Info:        TARGET PRESSURE IS 1.01325 BAR
Info:     OSCILLATION PERIOD IS 50 FS
Info:             DECAY TIME IS 25 FS
Info:     PISTON TEMPERATURE IS 310.15 K
Info:       PRESSURE CONTROL IS GROUP-BASED
Info:    INITIAL STRAIN RATE IS 6.57692e-05 6.57692e-05 -0.000103054
Info:       CELL FLUCTUATION IS ANISOTROPIC
Info:     SHAPE OF CELL IS CONSTRAINED IN X-Y PLANE
Info: ACCELERATED MD ACTIVE
Info: BOOSTING DIHEDRAL POTENTIAL
Info: accelMDG THRESHOLD ENERGY SET TO LOWER BOUND Vmax
Info: accelMDG 1000000 CONVENTIONAL MD STEPS (WITH 200000 PREPARATION STEPS)
Info: accelMDG 1000000 EQUILIBRATION STEPS (WITH 200000 PREPARATION STEPS)
Info: accelMDGSigma0D: 104 KCAL/MOL
Info: accelMD WILL BE DONE FROM STEP 0 TO THE END OF THE SIMULATION
Info: accelMD OUTPUT FREQUENCY 500
Info: PARTICLE MESH EWALD (PME) ACTIVE
Info: PME TOLERANCE               1e-06
Info: PME EWALD COEFFICIENT       0.257952
Info: PME INTERPOLATION ORDER     6
Info: PME GRID DIMENSIONS         96 96 144
Info: PME MAXIMUM GRID SPACING    1
Info: PME RECIPROCAL SUM OFFLOADED TO GPU
Info: FULL ELECTROSTATIC EVALUATION FREQUENCY      1
Info: USING VERLET I (r-RESPA) MTS SCHEME.
Info: C1 SPLITTING OF LONG RANGE ELECTROSTATICS
Info: PLACING ATOMS IN PATCHES BY HYDROGEN GROUPS
Info: RIGID BONDS TO HYDROGEN : ALL
Info:         ERROR TOLERANCE : 1e-08
Info:          MAX ITERATIONS : 100
Info: RIGID WATER USING SETTLE ALGORITHM
Info: RANDOM NUMBER SEED     1647256833
Info: USE HYDROGEN BONDS?    NO
Info: COORDINATE PDB         step5_input.pdb
Info: STRUCTURE FILE         step5_input.psf
Info: PARAMETER file: CHARMM format!
Info: PARAMETERS             toppar/par_all36m_prot.prm
Info: PARAMETERS             toppar/par_all36_na.prm
Info: PARAMETERS             toppar/par_all36_carb.prm
Info: PARAMETERS             toppar/par_all36_lipid.prm
Info: PARAMETERS             toppar/par_all36_cgenff.prm
Info: PARAMETERS             toppar/par_interface.prm
Info: PARAMETERS             toppar/toppar_all36_moreions.str
Info: PARAMETERS             toppar/toppar_all36_nano_lig.str
Info: PARAMETERS             toppar/toppar_all36_nano_lig_patch.str
Info: PARAMETERS             toppar/toppar_all36_synthetic_polymer.str
Info: PARAMETERS             toppar/toppar_all36_synthetic_polymer_patch.str
Info: PARAMETERS             toppar/toppar_all36_polymer_solvent.str
Info: PARAMETERS             toppar/toppar_water_ions.str
Info: PARAMETERS             toppar/toppar_dum_noble_gases.str
Info: PARAMETERS             toppar/toppar_ions_won.str
Info: PARAMETERS             toppar/toppar_all36_prot_arg0.str
Info: PARAMETERS             toppar/toppar_all36_prot_c36m_d_aminoacids.str
Info: PARAMETERS             toppar/toppar_all36_prot_fluoro_alkanes.str
Info: PARAMETERS             toppar/toppar_all36_prot_heme.str
Info: PARAMETERS             toppar/toppar_all36_prot_na_combined.str
Info: PARAMETERS             toppar/toppar_all36_prot_retinol.str
Info: PARAMETERS             toppar/toppar_all36_prot_model.str
Info: PARAMETERS             toppar/toppar_all36_prot_modify_res.str
Info: PARAMETERS             toppar/toppar_all36_na_nad_ppi.str
Info: PARAMETERS             toppar/toppar_all36_na_rna_modified.str
Info: PARAMETERS             toppar/toppar_all36_lipid_sphingo.str
Info: PARAMETERS             toppar/toppar_all36_lipid_archaeal.str
Info: PARAMETERS             toppar/toppar_all36_lipid_bacterial.str
Info: PARAMETERS             toppar/toppar_all36_lipid_cardiolipin.str
Info: PARAMETERS             toppar/toppar_all36_lipid_cholesterol.str
Info: PARAMETERS             toppar/toppar_all36_lipid_dag.str
Info: PARAMETERS             toppar/toppar_all36_lipid_inositol.str
Info: PARAMETERS             toppar/toppar_all36_lipid_lnp.str
Info: PARAMETERS             toppar/toppar_all36_lipid_lps.str
Info: PARAMETERS             toppar/toppar_all36_lipid_mycobacterial.str
Info: PARAMETERS             toppar/toppar_all36_lipid_miscellaneous.str
Info: PARAMETERS             toppar/toppar_all36_lipid_model.str
Info: PARAMETERS             toppar/toppar_all36_lipid_prot.str
Info: PARAMETERS             toppar/toppar_all36_lipid_tag.str
Info: PARAMETERS             toppar/toppar_all36_lipid_yeast.str
Info: PARAMETERS             toppar/toppar_all36_lipid_hmmm.str
Info: PARAMETERS             toppar/toppar_all36_lipid_detergent.str
Info: PARAMETERS             toppar/toppar_all36_lipid_ether.str
Info: PARAMETERS             toppar/toppar_all36_carb_glycolipid.str
Info: PARAMETERS             toppar/toppar_all36_carb_glycopeptide.str
Info: PARAMETERS             toppar/toppar_all36_carb_imlab.str
Info: PARAMETERS             toppar/toppar_all36_label_spin.str
Info: PARAMETERS             toppar/toppar_all36_label_fluorophore.str
Info: USING ARITHMETIC MEAN TO COMBINE L-J SIGMA PARAMETERS
Info: BINARY COORDINATES     step7.0_production.coor
Info: SUMMARY OF PARAMETERS:
Info: 1955 BONDS
Info: 6609 ANGLES
Info: 19569 DIHEDRAL
Info: 425 IMPROPER
Info: 28 CROSSTERM
Info: 736 VDW
Info: 120 VDW_PAIRS
Info: 0 NBTHOLE_PAIRS
Info: STRUCTURE SUMMARY:
Info: 108476 ATOMS
Info: 83758 BONDS
Info: 90651 ANGLES
Info: 93181 DIHEDRALS
Info: 1661 IMPROPERS
Info: 484 CROSSTERMS
Info: 0 EXCLUSIONS
Info: 93929 RIGID BONDS
Info: 231499 DEGREES OF FREEDOM
Info: 39001 HYDROGEN GROUPS
Info: 4 ATOMS IN LARGEST HYDROGEN GROUP
Info: 39001 MIGRATION GROUPS
Info: 4 ATOMS IN LARGEST MIGRATION GROUP
Info: TOTAL MASS = 654127 amu
Info: TOTAL CHARGE = 1.53836e-05 e
Info: MASS DENSITY = 1.02763 g/cm^3
Info: ATOM DENSITY = 0.102625 atoms/A^3
Info: ADDED 267231 IMPLICIT EXCLUSIONS
Info: NONBONDED TABLE R-SQUARED SPACING: 0.0625
Info: NONBONDED TABLE SIZE: 769 POINTS
Info: REMOVING COM VELOCITY -0.0147249 0.0283361 0.0155407
Info: Updated CUDA force table with 4096 elements.
Info: Updated CUDA LJ table with 736 x 736 elements.
Info: Found 388 unique exclusion lists needing 2708 bytes
TCL: Running for 2000000 steps
ETITLE: TS BOND ANGLE DIHED IMPRP ELECT VDW BOUNDARY MISC KINETIC TOTAL TEMP POTENTIAL TOTAL3 TEMPAVG PRESSURE GPRESSURE VOLUME PRESSAVG GPRESSAVG
ENERGY: 0 4686.7500 21322.7506 15533.1029 410.4731 -313877.1844 15225.4670 0.0000 0.0000 71192.4965 -185506.1443 309.5106 -256698.6408 -185094.7354 309.5106 259.0940 264.6235 1057018.2026 259.0940 264.6235
ENERGY: 400000 4578.9768 21174.7961 15349.6216 366.1630 -313119.9342 14719.0276 0.0000 0.0000 71652.5846 -185278.7644 311.5108 -256931.3490 -184860.4349 308.6276 1.9617 1.9592 1058371.3742 0.5914 0.5983
ENERGY: 800000 4566.3239 21286.2718 15219.7858 363.7596 -312124.1122 14351.5185 0.0000 0.0000 71128.4337 -185208.0189 309.2321 -256336.4527 -184799.0641 309.3257 -166.7508 -167.4791 1061226.9926 1.5264 1.5327
ENERGY: 1200000 4629.3285 21192.3744 15604.0085 377.1809 -312828.6191 14703.0309 0.0000 0.0000 71571.6946 -184751.0012 311.1591 -256322.6959 -184335.2470 309.0429 -76.2855 -80.2738 1060383.0806 1.1696 1.1612
ENERGY: 1600000 4541.2578 21164.0116 15888.8175 378.9739 -313321.2421 15034.5412 0.0000 0.0000 71046.3000 -185267.3401 308.8750 -256313.6400 -184866.8733 309.1437 450.1079 448.7595 1058791.9468 1.7983 1.8370
ENERGY: 2000000 4462.7889 21226.8449 15897.3795 377.8229 -313295.3432 15175.2476 0.0000 0.0000 71073.5346 -185081.7248 308.9934 -256155.2594 -184665.5497 308.6647 368.4967 368.0406 1058532.8992 1.4384 1.4262
