Info: SIMULATION PARAMETERS:
Info: TIMESTEP               2
Info: NUMBER OF STEPS        0
Info: STEPS PER CYCLE        20
Info: PERIODIC CELL BASIS 1  88.7915 0 0
Info: PERIODIC CELL BASIS 2  0 88.7915 0
Info: PERIODIC CELL BASIS 3  0 0 134.073
Info: PERIODIC CELL CENTER   0 0 0
Info: WRAPPING WATERS AROUND PERIODIC BOUNDARIES ON OUTPUT.
Info: WRAPPING ALL CLUSTERS AROUND PERIODIC BOUNDARIES ON OUTPUT.
Info: FIRST LDB TIMESTEP     100
Info: LAST LDB TIMESTEP     -1
Info: HOM BACKGROUND SCALING 1
Info: PME BACKGROUND SCALING 1
Info: MIN ATOMS PER PATCH    40
Info: VELOCITY FILE          step7.0_production.vel
Info: CENTER OF MASS MOVING INITIALLY? NO
Info: DIELECTRIC             1
Info: EXCLUDE                SCALED ONE-FOUR
Info: 1-4 ELECTROSTATICS SCALED BY 1
Info: MODIFIED 1-4 VDW PARAMETERS WILL BE USED
Info: DCD FILENAME           gamd_test_2D.dcd
Info: DCD FREQUENCY          500
Info: DCD FIRST STEP         500
Info: DCD FILE WILL CONTAIN UNIT CELL DATA
Info: XST FILENAME           gamd_test_2D.xst
Info: XST FREQUENCY          5000
Info: NO VELOCITY DCD OUTPUT
Info: NO FORCE DCD OUTPUT
Info: OUTPUT FILENAME        gamd_test_2D
Info: BINARY OUTPUT FILES WILL BE USED
Info: RESTART FILENAME       gamd_test_2D.restart
Info: RESTART FREQUENCY      5000
Info: BINARY RESTART FILES WILL BE USED
Info: SWITCHING ACTIVE
Info: VDW FORCE SWITCHING ACTIVE
Info: SWITCHING ON           10
Info: SWITCHING OFF          12
Info: PAIRLIST DISTANCE      16
Info: PAIRLIST SHRINK RATE   0.01
Info: PAIRLIST GROW RATE     0.01
Info: PAIRLIST TRIGGER       0.3
Info: PAIRLISTS PER CYCLE    2
Info: PAIRLISTS ENABLED
Info: MARGIN                 1.11
Info: HYDROGEN GROUP CUTOFF  2.5
Info: PATCH DIMENSION        19.61
Info: ENERGY OUTPUT STEPS    5000
Info: CROSSTERM ENERGY INCLUDED IN DIHEDRAL
Info: TIMING OUTPUT STEPS    5000
Info: LANGEVIN DYNAMICS ACTIVE
Info: LANGEVIN TEMPERATURE   310.15
Info: LANGEVIN USING BBK INTEGRATOR
Info: LANGEVIN DAMPING COEFFICIENT IS 1 INVERSE PS
Info: LANGEVIN DYNAMICS NOT APPLIED TO HYDROGENS
Info: LANGEVIN PISTON PRESSURE CONTROL ACTIVE
Info:        TARGET PRESSURE IS 1.01325 BAR
Info:     OSCILLATION PERIOD IS 50 FS
Info:             DECAY TIME IS 25 FS
Info:     PISTON TEMPERATURE IS 310.15 K
Info:       PRESSURE CONTROL IS GROUP-BASED
Info:    INITIAL STRAIN RATE IS 6.57692e-05 6.57692e-05 -0.000103054
Info:       CELL FLUCTUATION IS ANISOTROPIC
Info:     SHAPE OF CELL IS CONSTRAINED IN X-Y PLANE
Info: ACCELERATED MD ACTIVE
Info: BOOSTING DIHEDRAL POTENTIAL
Info: accelMDG THRESHOLD ENERGY SET TO LOWER BOUND Vmax
Info: accelMDG 1000000 CONVENTIONAL MD STEPS (WITH 200000 PREPARATION STEPS)
Info: accelMDG 1000000 EQUILIBRATION STEPS (WITH 200000 PREPARATION STEPS)
Info: accelMDGSigma0D: 2 KCAL/MOL
Info: accelMD WILL BE DONE FROM STEP 0 TO THE END OF THE SIMULATION
Info: accelMD OUTPUT FREQUENCY 500
Info: PARTICLE MESH EWALD (PME) ACTIVE
Info: PME TOLERANCE               1e-06
Info: PME EWALD COEFFICIENT       0.257952
Info: PME INTERPOLATION ORDER     6
Info: PME GRID DIMENSIONS         96 96 144
Info: PME MAXIMUM GRID SPACING    1
Info: PME RECIPROCAL SUM OFFLOADED TO GPU
Info: FULL ELECTROSTATIC EVALUATION FREQUENCY      1
Info: USING VERLET I (r-RESPA) MTS SCHEME.
Info: C1 SPLITTING OF LONG RANGE ELECTROSTATICS
Info: PLACING ATOMS IN PATCHES BY HYDROGEN GROUPS
Info: RIGID BONDS TO HYDROGEN : ALL
Info:         ERROR TOLERANCE : 1e-08
Info:          MAX ITERATIONS : 100
Info: RIGID WATER USING SETTLE ALGORITHM
Info: RANDOM NUMBER SEED     1646145754
Info: USE HYDROGEN BONDS?    NO
Info: COORDINATE PDB         step5_input.pdb
Info: STRUCTURE FILE         step5_input.psf
Info: PARAMETER file: CHARMM format!
Info: PARAMETERS             toppar/par_all36m_prot.prm
Info: PARAMETERS             toppar/par_all36_na.prm
Info: PARAMETERS             toppar/par_all36_carb.prm
Info: PARAMETERS             toppar/par_all36_lipid.prm
Info: PARAMETERS             toppar/par_all36_cgenff.prm
Info: PARAMETERS             toppar/par_interface.prm
Info: PARAMETERS             toppar/toppar_all36_moreions.str
Info: PARAMETERS             toppar/toppar_all36_nano_lig.str
Info: PARAMETERS             toppar/toppar_all36_nano_lig_patch.str
Info: PARAMETERS             toppar/toppar_all36_synthetic_polymer.str
Info: PARAMETERS             toppar/toppar_all36_synthetic_polymer_patch.str
Info: PARAMETERS             toppar/toppar_all36_polymer_solvent.str
Info: PARAMETERS             toppar/toppar_water_ions.str
Info: PARAMETERS             toppar/toppar_dum_noble_gases.str
Info: PARAMETERS             toppar/toppar_ions_won.str
Info: PARAMETERS             toppar/toppar_all36_prot_arg0.str
Info: PARAMETERS             toppar/toppar_all36_prot_c36m_d_aminoacids.str
Info: PARAMETERS             toppar/toppar_all36_prot_fluoro_alkanes.str
Info: PARAMETERS             toppar/toppar_all36_prot_heme.str
Info: PARAMETERS             toppar/toppar_all36_prot_na_combined.str
Info: PARAMETERS             toppar/toppar_all36_prot_retinol.str
Info: PARAMETERS             toppar/toppar_all36_prot_model.str
Info: PARAMETERS             toppar/toppar_all36_prot_modify_res.str
Info: PARAMETERS             toppar/toppar_all36_na_nad_ppi.str
Info: PARAMETERS             toppar/toppar_all36_na_rna_modified.str
Info: PARAMETERS             toppar/toppar_all36_lipid_sphingo.str
Info: PARAMETERS             toppar/toppar_all36_lipid_archaeal.str
Info: PARAMETERS             toppar/toppar_all36_lipid_bacterial.str
Info: PARAMETERS             toppar/toppar_all36_lipid_cardiolipin.str
Info: PARAMETERS             toppar/toppar_all36_lipid_cholesterol.str
Info: PARAMETERS             toppar/toppar_all36_lipid_dag.str
Info: PARAMETERS             toppar/toppar_all36_lipid_inositol.str
Info: PARAMETERS             toppar/toppar_all36_lipid_lnp.str
Info: PARAMETERS             toppar/toppar_all36_lipid_lps.str
Info: PARAMETERS             toppar/toppar_all36_lipid_mycobacterial.str
Info: PARAMETERS             toppar/toppar_all36_lipid_miscellaneous.str
Info: PARAMETERS             toppar/toppar_all36_lipid_model.str
Info: PARAMETERS             toppar/toppar_all36_lipid_prot.str
Info: PARAMETERS             toppar/toppar_all36_lipid_tag.str
Info: PARAMETERS             toppar/toppar_all36_lipid_yeast.str
Info: PARAMETERS             toppar/toppar_all36_lipid_hmmm.str
Info: PARAMETERS             toppar/toppar_all36_lipid_detergent.str
Info: PARAMETERS             toppar/toppar_all36_lipid_ether.str
Info: PARAMETERS             toppar/toppar_all36_carb_glycolipid.str
Info: PARAMETERS             toppar/toppar_all36_carb_glycopeptide.str
Info: PARAMETERS             toppar/toppar_all36_carb_imlab.str
Info: PARAMETERS             toppar/toppar_all36_label_spin.str
Info: PARAMETERS             toppar/toppar_all36_label_fluorophore.str
Info: USING ARITHMETIC MEAN TO COMBINE L-J SIGMA PARAMETERS
Info: BINARY COORDINATES     step7.0_production.coor
Info: SUMMARY OF PARAMETERS:
Info: 1955 BONDS
Info: 6609 ANGLES
Info: 19569 DIHEDRAL
Info: 425 IMPROPER
Info: 28 CROSSTERM
Info: 736 VDW
Info: 120 VDW_PAIRS
Info: 0 NBTHOLE_PAIRS
Info: STRUCTURE SUMMARY:
Info: 108476 ATOMS
Info: 83758 BONDS
Info: 90651 ANGLES
Info: 93181 DIHEDRALS
Info: 1661 IMPROPERS
Info: 484 CROSSTERMS
Info: 0 EXCLUSIONS
Info: 93929 RIGID BONDS
Info: 231499 DEGREES OF FREEDOM
Info: 39001 HYDROGEN GROUPS
Info: 4 ATOMS IN LARGEST HYDROGEN GROUP
Info: 39001 MIGRATION GROUPS
Info: 4 ATOMS IN LARGEST MIGRATION GROUP
Info: TOTAL MASS = 654127 amu
Info: TOTAL CHARGE = 1.53836e-05 e
Info: MASS DENSITY = 1.02763 g/cm^3
Info: ATOM DENSITY = 0.102625 atoms/A^3
Info: ADDED 267231 IMPLICIT EXCLUSIONS
Info: NONBONDED TABLE R-SQUARED SPACING: 0.0625
Info: NONBONDED TABLE SIZE: 769 POINTS
Info: REMOVING COM VELOCITY -0.0147249 0.0283361 0.0155407
Info: Updated CUDA force table with 4096 elements.
Info: Updated CUDA LJ table with 736 x 736 elements.
Info: Found 388 unique exclusion lists needing 2708 bytes
TCL: Running for 2000000 steps
ETITLE: TS BOND ANGLE DIHED IMPRP ELECT VDW BOUNDARY MISC KINETIC TOTAL TEMP POTENTIAL TOTAL3 TEMPAVG PRESSURE GPRESSURE VOLUME PRESSAVG GPRESSAVG
ENERGY: 0 4686.7500 21322.7506 15533.1029 410.4731 -313877.1844 15225.4670 0.0000 0.0000 71192.4965 -185506.1443 309.5106 -256698.6408 -185094.7354 309.5106 259.0941 264.6235 1057018.2026 259.0941 264.6235
ENERGY: 400000 4619.4889 21359.1433 15264.3636 403.4187 -313076.0593 14743.1130 0.0000 0.0000 70897.4711 -185789.0606 308.2279 -256686.5318 -185406.9377 309.4383 39.9159 39.7727 1056989.0094 1.2451 1.2851
ENERGY: 800000 4691.2992 21270.2151 15246.2228 395.5446 -313347.3142 15180.1092 0.0000 0.0000 70939.1382 -185624.7850 308.4091 -256563.9232 -185216.7384 308.8568 -7.1015 -4.1240 1057967.5675 1.7807 1.7699
ENERGY: 1200000 4525.1716 21075.5693 15277.4674 368.1248 -313450.2818 14959.8061 0.0000 0.0000 70920.5781 -186323.5645 308.3284 -257244.1426 -185902.0940 308.5487 216.7293 215.9573 1057824.0303 1.5956 1.6054
ENERGY: 1600000 4639.0614 21125.2058 15501.4679 371.7370 -312794.2791 14799.5404 0.0000 0.0000 71284.9908 -185072.2757 309.9127 -256357.2665 -184660.8232 308.6755 -86.1968 -87.8590 1060282.6938 -0.1923 -0.1852
ENERGY: 2000000 4514.1415 21361.8814 15471.6986 375.1756 -312901.3119 14996.9249 0.0000 0.0000 70888.0363 -185293.4534 308.1869 -256181.4898 -184882.0428 308.7865 149.9527 149.6104 1059758.4282 2.6472 2.6681
